*HEADING
cubit(ah_2D_00625.inp): 03/06/2014: 15:15:27
version: 13.2
**
********************************** P A R T S **********************************
*PART, NAME=Part-Default
**
********************************** N O D E S **********************************
*NODE, NSET=ALLNODES
       1,    2.000000e+00,    0.000000e+00,    0.000000e+00
       2,    2.062500e+00,    0.000000e+00,    0.000000e+00
       3,    2.060222e+00,    6.416626e-02,    0.000000e+00
       4,    1.999013e+00,    6.282152e-02,    0.000000e+00
       5,    2.125000e+00,    0.000000e+00,    0.000000e+00
       6,    2.122122e+00,    6.551359e-02,    0.000000e+00
       7,    2.187500e+00,    0.000000e+00,    0.000000e+00
       8,    2.184422e+00,    6.668316e-02,    0.000000e+00
       9,    2.250000e+00,    0.000000e+00,    0.000000e+00
      10,    2.246951e+00,    6.752658e-02,    0.000000e+00
      11,    2.312500e+00,    0.000000e+00,    0.000000e+00
      12,    2.309661e+00,    6.792450e-02,    0.000000e+00
      13,    2.375000e+00,    0.000000e+00,    0.000000e+00
      14,    2.372470e+00,    6.804759e-02,    0.000000e+00
      15,    2.437500e+00,    0.000000e+00,    0.000000e+00
      16,    2.435295e+00,    6.774578e-02,    0.000000e+00
      17,    2.500000e+00,    0.000000e+00,    0.000000e+00
      18,    2.498103e+00,    6.733735e-02,    0.000000e+00
      19,    2.562500e+00,    0.000000e+00,    0.000000e+00
      20,    2.560923e+00,    6.670365e-02,    0.000000e+00
** ... 25113 like lines cut
**
********************************** E L E M E N T S ****************************
*ELEMENT, TYPE=S4R, ELSET=EB4
       1,       1,       2,       3,       4
       2,       2,       5,       6,       3
       3,       5,       7,       8,       6
       4,       7,       9,      10,       8
       5,       9,      11,      12,      10
       6,      11,      13,      14,      12
       7,      13,      15,      16,      14
       8,      15,      17,      18,      16
       9,      17,      19,      20,      18
      10,      19,      21,      22,      20
      11,      21,      23,      24,      22
      12,      23,      25,      26,      24
      13,      25,      27,      28,      26
      14,      27,      29,      30,      28
      15,      29,      31,      32,      30
      16,      31,      33,      34,      32
      17,      33,      35,      36,      34
      18,      35,      37,      38,      36
      19,      37,      39,      40,      38
      20,      39,      41,      42,      40
** ... 24799 like lines cut
**
********************************** N O D E S E T S **********************************
*NSET, NSET=NS1
     579,     580,     895,     897,     899,     901,
     903,     905,     907,     909,     911,     913,
     915,     917,     919,     921,     923,     925,
     927,     929,     931,     933,     935,     937,
     939,     941,     943,     945,     947,     949,
     951,     953,     955,     957,     959,     961,
     963,     965,     967,     969,     971,     973,
     975,     977,     979,     981,     983,     985,
     987,     989,     991,     993,     995,     997,
     999,    1001,    1003,    1005,    1007,    1009,
    1011,    1013,    1015,    1017,    1019,    1021,
    1023,    1025,    1027,    1029,    1031,    1033,
    1035,    1037,    1039,    1041,    1043,    1045,
    1047,    1049,    1051,    1053,    1055,    1057,
    1059,    1061,    1063,    1065,    1067,    1069,
    1071,    1073,    1075,    1077,    1079,    1081,
    1083,    1085,    1087,    1089,    1091,    1093,
    1095,    1097,    1099,    1101,    1103,    1105,
    1107,    1109,    1111,    1113,    1115,    1117,
    1119,    1121,    1123,    1125,    1127,    1129,
    1131,    1133,    1135,    1137,    1139,    1141,
    1143,    1145,    1147,
*NSET, NSET=NS2
     259,     260,     263,     265,     267,     269,
     271,     273,     275,     277,     279,     281,
     283,     285,     287,     289,     291,     293,
     295,     297,     299,     301,     303,     305,
     307,     309,     311,     313,     315,     317,
     319,     321,     323,     325,     327,     329,
     331,     333,     335,     337,     339,     341,
     343,     345,     347,     349,     351,     353,
     355,     357,     359,     361,     363,     365,
     367,     369,     371,     373,     375,     377,
     379,     381,     383,     385,     387,     389,
     391,     393,     395,     397,     399,     401,
     403,     405,     407,     409,     411,     413,
     415,     417,     419,     421,     423,     425,
     427,     429,     431,     433,     435,     437,
     439,     441,     443,     445,     447,     449,
     451,     453,     455,     457,     459,     461,
     463,     465,     467,     469,     471,     473,
     475,     477,     479,     481,     483,     485,
     487,     489,     491,     493,     495,     497,
** ... 7 like lines cut
*NSET, NSET=NS3
     257,     258,     581,     583,     585,     587,
     589,     591,     593,     595,     597,     599,
     601,     603,     605,     607,     609,     611,
     613,     615,     617,     619,     621,     623,
     625,     627,     629,     631,     633,     635,
     637,     639,     641,     643,     645,     647,
     649,     651,     653,     655,     657,     659,
     661,     663,     665,     667,     669,     671,
     673,     675,     677,     679,     681,     683,
     685,     687,     689,     691,     693,     695,
     697,     699,     701,     703,     705,     707,
     709,     711,     713,     715,     717,     719,
     721,     723,     725,     727,     729,     731,
     733,     735,     737,     739,     741,     743,
     745,     747,     749,     751,     753,     755,
     757,     759,     761,     763,     765,     767,
     769,     771,     773,     775,     777,     779,
     781,     783,     785,     787,     789,     791,
     793,     795,     797,     799,     801,     803,
     805,     807,     809,     811,     813,     815,
** ... 7 like lines cut
*NSET, NSET=NS4
     257,     255,     253,     251,     249,     247,
     245,     243,     241,     239,     237,     235,
     233,     231,     229,     227,     225,     223,
     221,     219,     217,     215,     213,     211,
     209,     207,     205,     203,     201,     199,
     197,     195,     193,     191,     189,     187,
     185,     183,     181,     179,     177,     175,
     173,     171,     169,     167,     165,     163,
     161,     159,     157,     155,     153,     151,
     149,     147,     145,     143,     141,     139,
     137,     135,     133,     131,     129,     127,
     125,     123,     121,     119,     117,     115,
     113,     111,     109,     107,     105,     103,
     101,      99,      97,      95,      93,      91,
      89,      87,      85,      83,      81,      79,
      77,      75,      73,      71,      69,      67,
      65,      63,      61,      59,      57,      55,
      53,      51,      49,      47,      45,      43,
      41,      39,      37,      35,      33,      31,
      29,      27,      25,      23,      21,      19,
      17,      15,      13,      11,       9,       7,
       5,       2,       1,
*NSET, NSET=NS5
    1147,    1148,    1149,    1151,    1153,    1155,
    1157,    1159,    1161,    1163,    1165,    1167,
    1169,    1171,    1173,    1175,    1177,    1179,
    1181,    1183,    1185,    1187,    1189,    1191,
    1193,    1195,    1197,    1199,    1201,    1203,
    1205,    1207,    1209,    1211,    1213,    1215,
    1217,    1219,    1221,    1223,    1225,    1227,
    1229,    1231,    1233,    1235,    1237,    1239,
    1241,       4,       1,
**
********************************** P R O P E R T I E S ************************
*SHELL SECTION, ELSET=EB4, SECTION INTEGRATION=SIMPSON, MATERIAL=Default-Steel
1.000000e+00
**
*END PART
**
**
**
********************************** E N D   P A R T S **********************************
**
**
********************************** A S S E M B L Y ************************************
**
*ASSEMBLY, NAME=ASSEMBLY1
**
*INSTANCE, NAME=Part-Default_1, PART=Part-Default
*END INSTANCE
**
*END ASSEMBLY
**
**
**
*MATERIAL, NAME = Default-Steel
*ELASTIC, TYPE=ISOTROPIC
2.068000e+05, 2.900000e-01
*DENSITY
7.000000e-06
*CONDUCTIVITY,TYPE=ISO
4.500000e-02
*SPECIFIC HEAT
5.000000e+02
**
**
************************************** H I S T O R Y *************************************
**
*PREPRINT
**
**************************************** S T E P 1 ***************************************
*STEP,INC=100,NAME=Default Set
**
*STATIC
1, 1, 1e-05, 1
**
**
**
**
*END STEP
