*HEADING
cubit(defect5.inp): 01/29/2016: 00:40:35
version: 13.2
**
********************************** P A R T S **********************************
*PART, NAME=Part-Default
**
********************************** N O D E S **********************************
*NODE, NSET=ALLNODES
       1,    6.688980e-01,   -7.400000e-04
       2,    6.707800e-01,   -6.766000e-02
       3,    7.396430e-01,   -7.058000e-02
       4,    7.471210e-01,   -5.000000e-04
       5,    6.039460e-01,   -8.900000e-04
       6,    6.080130e-01,   -6.429000e-02
       7,    5.490980e-01,   -9.700000e-04
       8,    5.517370e-01,   -6.244000e-02
       9,    6.048790e-01,   -1.262200e-01
      10,    6.632220e-01,   -1.369800e-01
      11,    7.315050e-01,   -1.438700e-01
      12,    8.091970e-01,   -7.194000e-02
      13,    8.216210e-01,   -2.800000e-04
      14,    8.016670e-01,   -1.454600e-01
      15,    5.000000e-01,   -1.000000e-03
      16,    4.983360e-01,   -6.266000e-02
      17,    4.509020e-01,   -9.700000e-04
      18,    4.439950e-01,   -6.390000e-02
      19,    3.960540e-01,   -8.900000e-04
      20,    3.858200e-01,   -6.510000e-02
** ... 1142 like lines cut
**
********************************** E L E M E N T S ****************************
*ELEMENT, TYPE=S4R, ELSET=property_group_1
       1,       1,       2,       3,       4
       2,       5,       6,       2,       1
       3,       7,       8,       6,       5
       4,       6,       9,      10,       2
       5,       2,      10,      11,       3
       6,       4,       3,      12,      13
       7,       3,      11,      14,      12
       8,      15,      16,       8,       7
       9,      17,      18,      16,      15
      10,      19,      20,      18,      17
      11,       8,      21,       9,       6
      12,      16,      22,      21,       8
      13,      23,      24,      20,      19
      14,      25,      26,      24,      23
      15,      27,      28,      26,      25
      16,      21,      29,      30,       9
      17,       9,      30,      31,      10
      18,      29,      32,      31,      30
      19,      10,      31,      33,      11
      20,      11,      33,      34,      14
** ... 1105 like lines cut
**
********************************** N O D E S E T S **********************************
*NSET, NSET=NS1
     874,     871,     875,     877,     863,     774,
     675,     596,     517,     444,     385,     332,
     281,     240,     203,     169,     138,     110,
      84,      60,      36,      13,       4,       1,
       5,       7,      15,      17,      19,      23,
      25,      27,      47,      49,      72,      90,
     117,     119,     146,     156,     187,     220,
     257,     296,     345,     398,     461,     539,
     619,     710,     708,     705,     706,
*NSET, NSET=NS2
     706,     703,     800,     895,     892,     896,
*NSET, NSET=NS3
     966,     965,     963,     961,     873,     874,
*NSET, NSET=NS4
     896,     897,     978,    1034,    1081,    1085,
    1084,    1079,    1032,     967,     966,
**
********************************** P R O P E R T I E S ************************
*SHELL SECTION, ELSET=property_group_1, SECTION INTEGRATION=SIMPSON, MATERIAL=Default-Steel
0.000000e+00
**
*END PART
**
**
**
********************************** E N D   P A R T S **********************************
**
**
********************************** A S S E M B L Y ************************************
**
*ASSEMBLY, NAME=ASSEMBLY1
**
*INSTANCE, NAME=Part-Default_1, PART=Part-Default
*END INSTANCE
**
*END ASSEMBLY
**
**
**
*MATERIAL, NAME = Default-Steel
*ELASTIC, TYPE=ISOTROPIC
2.068000e+05, 2.900000e-01
*DENSITY
7.000000e-06
*CONDUCTIVITY,TYPE=ISO
4.500000e-02
*SPECIFIC HEAT
5.000000e+02
**
**
************************************** H I S T O R Y *************************************
**
*PREPRINT
**
**************************************** S T E P 1 ***************************************
*STEP,INC=100,NAME=Default Set
**
*STATIC
1, 1, 1e-05, 1
**
**
**
**
*END STEP
