*HEADING
cubit(curvefilm.inp): 10/12/2015: 16:50:31
version: 13.2
**
********************************** P A R T S **********************************
*PART, NAME=Part-Default
**
********************************** N O D E S **********************************
*NODE, NSET=ALLNODES
       1,   -2.000000e+01,    0.000000e+00,    0.000000e+00
       2,   -1.997514e+01,    9.969177e-01,    0.000000e+00
       3,   -2.094977e+01,    9.933802e-01,    0.000000e+00
       4,   -2.100000e+01,    0.000000e+00,    0.000000e+00
       5,   -1.990062e+01,    1.991357e+00,    0.000000e+00
       6,   -2.086851e+01,    1.987566e+00,    0.000000e+00
       7,   -1.977662e+01,    2.980845e+00,    0.000000e+00
       8,   -2.074672e+01,    2.974778e+00,    0.000000e+00
       9,   -1.960345e+01,    3.962923e+00,    0.000000e+00
      10,   -2.057871e+01,    3.955712e+00,    0.000000e+00
      11,   -1.938155e+01,    4.935148e+00,    0.000000e+00
      12,   -2.036818e+01,    4.928114e+00,    0.000000e+00
      13,   -1.911146e+01,    5.895103e+00,    0.000000e+00
      14,   -2.011918e+01,    5.888664e+00,    0.000000e+00
      15,   -1.879385e+01,    6.840403e+00,    0.000000e+00
      16,   -1.987544e+01,    6.829873e+00,    0.000000e+00
      17,   -1.842952e+01,    7.768696e+00,    0.000000e+00
      18,   -1.966358e+01,    7.791554e+00,    0.000000e+00
      19,   -1.801938e+01,    8.677675e+00,    0.000000e+00
      20,   -1.967857e+01,    8.872935e+00,    0.000000e+00
** ... 295 like lines cut
**
********************************** E L E M E N T S ****************************
*ELEMENT, TYPE=S4R, ELSET=EB3
       1,       1,       2,       3,       4
       2,       2,       5,       6,       3
       3,       5,       7,       8,       6
       4,       7,       9,      10,       8
       5,       9,      11,      12,      10
       6,      11,      13,      14,      12
       7,      13,      15,      16,      14
       8,      15,      17,      18,      16
       9,      17,      19,      20,      18
      10,      19,      21,      22,      20
      11,      21,      23,      24,      22
      12,      23,      25,      26,      24
      13,      25,      27,      28,      26
      14,      27,      29,      30,      28
      15,      29,      31,      32,      30
      16,      31,      33,      34,      32
      17,      33,      35,      36,      34
      18,      35,      37,      38,      36
      19,      37,      39,      40,      38
      20,      39,      41,      42,      40
** ... 221 like lines cut
**
********************************** N O D E S E T S **********************************
*NSET, NSET=NS1
     139,     137,     135,     128,     127,
*NSET, NSET=NS2
     139,     140,     141,     143,     145,     147,
     149,     151,     153,     155,     157,     159,
     161,     163,     165,     167,     169,     171,
     173,     175,     177,     179,     181,     183,
     185,     187,     189,     191,     193,     195,
     197,     199,     201,     203,     205,     207,
     209,     211,     213,     215,     217,     219,
     221,     223,     225,     227,     229,     231,
     233,     235,     237,     239,     241,     243,
     245,     247,     249,     251,     253,     255,
     257,     259,     261,     263,     265,     267,
     269,     271,     273,     275,     277,     279,
     281,     283,     132,     129,
*NSET, NSET=NS3
       1,       4,     133,     130,     129,
*NSET, NSET=NS4
       1,       2,       5,       7,       9,      11,
      13,      15,      17,      19,      21,      23,
      25,      27,      29,      31,      33,      35,
      37,      39,      41,      43,      45,      47,
      49,      51,      53,      55,      57,      59,
      61,      63,      65,      67,      69,      71,
      73,      75,      77,      79,      81,      83,
      85,      87,      89,      91,      93,      95,
      97,      99,     101,     103,     105,     107,
     109,     111,     113,     115,     117,     119,
     121,     123,     125,     127,
**
********************************** P R O P E R T I E S ************************
*SHELL SECTION, ELSET=EB3, SECTION INTEGRATION=SIMPSON, MATERIAL=Default-Steel
1.000000e+00
**
*END PART
**
**
**
********************************** E N D   P A R T S **********************************
**
**
********************************** A S S E M B L Y ************************************
**
*ASSEMBLY, NAME=ASSEMBLY1
**
*INSTANCE, NAME=Part-Default_1, PART=Part-Default
*END INSTANCE
**
*END ASSEMBLY
**
**
**
*MATERIAL, NAME = Default-Steel
*ELASTIC, TYPE=ISOTROPIC
2.068000e+05, 2.900000e-01
*DENSITY
7.000000e-06
*CONDUCTIVITY,TYPE=ISO
4.500000e-02
*SPECIFIC HEAT
5.000000e+02
**
**
************************************** H I S T O R Y *************************************
**
*PREPRINT
**
**************************************** S T E P 1 ***************************************
*STEP,INC=100,NAME=Default Set
**
*STATIC
1, 1, 1e-05, 1
**
**
**
**
*END STEP
