*HEADING
cubit(curvedfilm3.inp): 10/25/2015: 21:47:47
version: 13.2
**
********************************** P A R T S **********************************
*PART, NAME=Part-Default
**
********************************** N O D E S **********************************
*NODE, NSET=ALLNODES
       1,    2.300000e+01,    0.000000e+00
       2,    2.400000e+01,    0.000000e+00
       3,    2.403799e+01,    1.021474e+00
       4,    2.295250e+01,    1.027795e+00
       5,    2.500000e+01,    0.000000e+00
       6,    2.499016e+01,    8.995053e-01
       7,    2.600000e+01,    0.000000e+00
       8,    2.594841e+01,    9.458221e-01
       9,    2.700000e+01,    0.000000e+00
      10,    2.696415e+01,    1.030244e+00
      11,   -2.700000e+01,    0.000000e+00
      12,   -2.600000e+01,    0.000000e+00
      13,   -2.592213e+01,    1.007446e+00
      14,   -2.696415e+01,    1.030244e+00
      15,   -2.500000e+01,    0.000000e+00
      16,   -2.490712e+01,    9.997772e-01
      17,   -2.400000e+01,    0.000000e+00
      18,   -2.391013e+01,    1.009708e+00
      19,   -2.300000e+01,    0.000000e+00
      20,   -2.295250e+01,    1.027795e+00
** ... 260 like lines cut
**
********************************** E L E M E N T S ****************************
*ELEMENT, TYPE=S4R, ELSET=EB3
       1,       1,       2,       3,       4
       2,       2,       5,       6,       3
       3,       5,       7,       8,       6
       4,       7,       9,      10,       8
       5,      11,      12,      13,      14
       6,      12,      15,      16,      13
       7,      15,      17,      18,      16
       8,      17,      19,      20,      18
       9,      20,      21,      22,      18
      10,      21,      23,      24,      22
      11,      23,      25,      26,      24
      12,      25,      27,      28,      26
      13,      27,      29,      30,      28
      14,      29,      31,      32,      30
      15,      31,      33,      34,      32
      16,      35,      36,      37,      38
      17,      39,      40,      41,      42
      18,      40,      43,      44,      41
      19,      43,      45,      46,      44
      20,      45,      47,      48,      46
** ... 189 like lines cut
**
********************************** N O D E S E T S **********************************
*NSET, NSET=NS1
       9,       7,       5,       2,       1,
*NSET, NSET=NS2
       9,      10,     135,     137,     139,     141,
     143,     145,     147,     149,     151,     153,
     155,     157,     159,     161,     163,     165,
     167,     169,     171,     173,     175,     177,
     179,     181,     183,     185,     187,     189,
     191,     193,     195,     197,     199,     201,
     203,     205,     207,     209,     211,     213,
     215,     217,     219,     221,     223,     225,
     227,     229,     231,     233,     235,     237,
     239,     241,     243,     245,     247,     249,
     251,     253,     255,     257,     259,     261,
     263,     265,     267,     269,     271,      14,
      11,
*NSET, NSET=NS3
      19,      17,      15,      12,      11,
*NSET, NSET=NS4
      19,      20,      21,      23,      25,      27,
      29,      31,      33,      35,      36,      39,
      40,      43,      45,      47,      49,      51,
      53,      55,      57,      59,      61,      63,
      65,      67,      69,      71,      73,      75,
      77,      79,      81,      83,      85,      87,
      89,      91,      93,      95,      97,      99,
     101,     103,     105,     107,     109,     111,
     113,     114,     117,     118,     121,     123,
     125,     127,     129,     131,     133,       4,
       1,
**
********************************** P R O P E R T I E S ************************
*SHELL SECTION, ELSET=EB3, SECTION INTEGRATION=SIMPSON, MATERIAL=Default-Steel
1.000000e+00
**
*END PART
**
**
**
********************************** E N D   P A R T S **********************************
**
**
********************************** A S S E M B L Y ************************************
**
*ASSEMBLY, NAME=ASSEMBLY1
**
*INSTANCE, NAME=Part-Default_1, PART=Part-Default
*END INSTANCE
**
*END ASSEMBLY
**
**
**
*MATERIAL, NAME = Default-Steel
*ELASTIC, TYPE=ISOTROPIC
2.068000e+05, 2.900000e-01
*DENSITY
7.000000e-06
*CONDUCTIVITY,TYPE=ISO
4.500000e-02
*SPECIFIC HEAT
5.000000e+02
**
**
************************************** H I S T O R Y *************************************
**
*PREPRINT
**
**************************************** S T E P 1 ***************************************
*STEP,INC=100,NAME=Default Set
**
*STATIC
1, 1, 1e-05, 1
**
**
**
**
*END STEP
