*HEADING
cubit(curvedfilm_sin1.inp): 06/05/2016: 23:01:32
version: 13.2
**
********************************** P A R T S **********************************
*PART, NAME=Part-Default
**
********************************** N O D E S **********************************
*NODE, NSET=ALLNODES
       1,   -1.000000e+01,    2.240000e-12
       2,   -9.800020e+00,    3.140000e-03
       3,   -9.799830e+00,    2.028460e-01
       4,   -1.000000e+01,    2.000000e-01
       5,   -9.799690e+00,    4.027330e-01
       6,   -1.000000e+01,    4.000000e-01
       7,   -9.799730e+00,    6.026860e-01
       8,   -1.000000e+01,    6.000000e-01
       9,   -9.799880e+00,    8.028240e-01
      10,   -1.000000e+01,    8.000000e-01
      11,   -9.800020e+00,    1.003140e+00
      12,   -1.000000e+01,    1.000000e+00
      13,   -9.600030e+00,    6.278000e-03
      14,   -9.599470e+00,    2.058610e-01
      15,   -9.599170e+00,    4.057220e-01
      16,   -9.599180e+00,    6.056580e-01
      17,   -9.599490e+00,    8.058260e-01
      18,   -9.600030e+00,    1.006280e+00
      19,   -9.400040e+00,    9.409000e-03
      20,   -9.398940e+00,    2.089520e-01
** ... 586 like lines cut
**
********************************** E L E M E N T S ****************************
*ELEMENT, TYPE=S4R, ELSET=property_group_1
       1,       1,       2,       3,       4
       2,       4,       3,       5,       6
       3,       6,       5,       7,       8
       4,       8,       7,       9,      10
       5,      10,       9,      11,      12
       6,      13,      14,       3,       2
       7,       3,      14,      15,       5
       8,       5,      15,      16,       7
       9,       7,      16,      17,       9
      10,      11,       9,      17,      18
      11,      19,      20,      14,      13
      12,      15,      14,      20,      21
      13,      16,      15,      21,      22
      14,      17,      16,      22,      23
      15,      18,      17,      23,      24
      16,      25,      26,      20,      19
      17,      26,      27,      21,      20
      18,      28,      22,      21,      27
      19,      23,      22,      28,      29
      20,      24,      23,      29,      30
** ... 480 like lines cut
**
********************************** N O D E S E T S **********************************
*NSET, NSET=NS1
       1,       2,      13,      19,      25,      31,
      37,      43,      49,      55,      61,      67,
      73,      79,      85,      91,      97,     103,
     109,     115,     121,     127,     133,     139,
     145,     151,     157,     163,     169,     175,
     181,     187,     193,     199,     205,     211,
     217,     223,     229,     235,     241,     247,
     253,     259,     265,     271,     277,     283,
     289,     295,     301,     307,     313,     319,
     325,     331,     337,     343,     349,     355,
     361,     367,     373,     379,     385,     391,
     397,     403,     409,     415,     421,     427,
     433,     439,     445,     451,     457,     463,
     469,     475,     481,     487,     493,     499,
     505,     511,     517,     523,     529,     535,
     541,     547,     553,     559,     565,     571,
     577,     583,     585,     587,     589,
*NSET, NSET=NS2
      12,      10,       8,       6,       4,       1,
*NSET, NSET=NS3
     606,     604,     600,     594,     582,     576,
     570,     564,     558,     552,     546,     540,
     534,     528,     522,     516,     510,     504,
     498,     492,     486,     480,     474,     468,
     462,     456,     450,     444,     438,     432,
     426,     420,     414,     408,     402,     396,
     390,     384,     378,     372,     366,     360,
     354,     348,     342,     336,     330,     324,
     318,     312,     306,     300,     294,     288,
     282,     276,     270,     264,     258,     252,
     246,     240,     234,     228,     222,     216,
     210,     204,     198,     192,     186,     180,
     174,     168,     162,     156,     150,     144,
     138,     132,     126,     120,     114,     108,
     102,      96,      90,      84,      78,      72,
      66,      60,      54,      48,      42,      36,
      30,      24,      18,      11,      12,
*NSET, NSET=NS4
     589,     590,     597,     602,     605,     606,
**
********************************** P R O P E R T I E S ************************
*SHELL SECTION, ELSET=property_group_1, SECTION INTEGRATION=SIMPSON, MATERIAL=Default-Steel
0.000000e+00
**
*END PART
**
**
**
********************************** E N D   P A R T S **********************************
**
**
********************************** A S S E M B L Y ************************************
**
*ASSEMBLY, NAME=ASSEMBLY1
**
*INSTANCE, NAME=Part-Default_1, PART=Part-Default
*END INSTANCE
**
*END ASSEMBLY
**
**
**
*MATERIAL, NAME = Default-Steel
*ELASTIC, TYPE=ISOTROPIC
2.068000e+05, 2.900000e-01
*DENSITY
7.000000e-06
*CONDUCTIVITY,TYPE=ISO
4.500000e-02
*SPECIFIC HEAT
5.000000e+02
**
**
************************************** H I S T O R Y *************************************
**
*PREPRINT
**
**************************************** S T E P 1 ***************************************
*STEP,INC=100,NAME=Default Set
**
*STATIC
1, 1, 1e-05, 1
**
**
**
**
*END STEP
