*HEADING
cubit(ah_2D_0125.inp): 03/06/2014: 15:14:55
version: 13.2
**
********************************** P A R T S **********************************
*PART, NAME=Part-Default
**
********************************** N O D E S **********************************
*NODE, NSET=ALLNODES
       1,    1.000000e+01,    0.000000e+00,    0.000000e+00
       2,    1.000000e+01,    1.234568e-01,    0.000000e+00
       3,    9.875361e+00,    1.236517e-01,    0.000000e+00
       4,    9.875000e+00,    0.000000e+00,    0.000000e+00
       5,    1.000000e+01,    2.469136e-01,    0.000000e+00
       6,    9.875496e+00,    2.472717e-01,    0.000000e+00
       7,    1.000000e+01,    3.703704e-01,    0.000000e+00
       8,    9.875511e+00,    3.707994e-01,    0.000000e+00
       9,    1.000000e+01,    4.938272e-01,    0.000000e+00
      10,    9.875555e+00,    4.942455e-01,    0.000000e+00
      11,    1.000000e+01,    6.172840e-01,    0.000000e+00
      12,    9.875707e+00,    6.176432e-01,    0.000000e+00
      13,    1.000000e+01,    7.407407e-01,    0.000000e+00
      14,    9.875788e+00,    7.410468e-01,    0.000000e+00
      15,    1.000000e+01,    8.641975e-01,    0.000000e+00
      16,    9.875953e+00,    8.644491e-01,    0.000000e+00
      17,    1.000000e+01,    9.876543e-01,    0.000000e+00
      18,    9.876085e+00,    9.878552e-01,    0.000000e+00
      19,    1.000000e+01,    1.111111e+00,    0.000000e+00
      20,    9.876228e+00,    1.111268e+00,    0.000000e+00
** ... 6412 like lines cut
**
********************************** E L E M E N T S ****************************
*ELEMENT, TYPE=S4R, ELSET=EB4
       1,       1,       2,       3,       4
       2,       2,       5,       6,       3
       3,       5,       7,       8,       6
       4,       7,       9,      10,       8
       5,       9,      11,      12,      10
       6,      11,      13,      14,      12
       7,      13,      15,      16,      14
       8,      15,      17,      18,      16
       9,      17,      19,      20,      18
      10,      19,      21,      22,      20
      11,      21,      23,      24,      22
      12,      23,      25,      26,      24
      13,      25,      27,      28,      26
      14,      27,      29,      30,      28
      15,      29,      31,      32,      30
      16,      31,      33,      34,      32
      17,      33,      35,      36,      34
      18,      35,      37,      38,      36
      19,      37,      39,      40,      38
      20,      39,      41,      42,      40
** ... 6254 like lines cut
**
********************************** N O D E S E T S **********************************
*NSET, NSET=NS1
     165,     166,     169,     171,     173,     175,
     177,     179,     181,     183,     185,     187,
     189,     191,     193,     195,     197,     199,
     201,     203,     205,     207,     209,     211,
     213,     215,     217,     219,     221,     223,
     225,     227,     229,     231,     233,     235,
     237,     239,     241,     243,     245,     247,
     249,     251,     253,     255,     257,     259,
     261,     263,     265,     267,     269,     271,
     273,     275,     277,     279,     281,     283,
     285,     287,     289,     291,     293,
*NSET, NSET=NS2
     163,     164,     421,     423,     425,     427,
     429,     431,     433,     435,     437,     439,
     441,     443,     445,     447,     449,     451,
     453,     455,     457,     459,     461,     463,
     465,     467,     469,     471,     473,     475,
     477,     479,     481,     483,     485,     487,
     489,     491,     493,     495,     497,     499,
     501,     503,     505,     507,     509,     511,
     513,     515,     517,     519,     521,     523,
     525,     527,     529,     531,     533,     535,
     537,     539,     541,     543,     545,     547,
     549,     551,     553,     555,     557,     559,
     561,     563,     565,     567,     569,     571,
     573,     168,     165,
*NSET, NSET=NS3
       1,       2,       5,       7,       9,      11,
      13,      15,      17,      19,      21,      23,
      25,      27,      29,      31,      33,      35,
      37,      39,      41,      43,      45,      47,
      49,      51,      53,      55,      57,      59,
      61,      63,      65,      67,      69,      71,
      73,      75,      77,      79,      81,      83,
      85,      87,      89,      91,      93,      95,
      97,      99,     101,     103,     105,     107,
     109,     111,     113,     115,     117,     119,
     121,     123,     125,     127,     129,     131,
     133,     135,     137,     139,     141,     143,
     145,     147,     149,     151,     153,     155,
     157,     159,     161,     163,
*NSET, NSET=NS4
       1,       4,     419,     417,     415,     413,
     411,     409,     407,     405,     403,     401,
     399,     397,     395,     393,     391,     389,
     387,     385,     383,     381,     379,     377,
     375,     373,     371,     369,     367,     365,
     363,     361,     359,     357,     355,     353,
     351,     349,     347,     345,     343,     341,
     339,     337,     335,     333,     331,     329,
     327,     325,     323,     321,     319,     317,
     315,     313,     311,     309,     307,     305,
     303,     301,     299,     296,     295,
*NSET, NSET=NS5
     293,     294,     575,     577,     579,     581,
     583,     585,     587,     589,     591,     593,
     595,     597,     599,     601,     603,     605,
     607,     609,     611,     613,     615,     617,
     298,     295,
**
********************************** P R O P E R T I E S ************************
*SHELL SECTION, ELSET=EB4, SECTION INTEGRATION=SIMPSON, MATERIAL=Default-Steel
1.000000e+00
**
*END PART
**
**
**
********************************** E N D   P A R T S **********************************
**
**
********************************** A S S E M B L Y ************************************
**
*ASSEMBLY, NAME=ASSEMBLY1
**
*INSTANCE, NAME=Part-Default_1, PART=Part-Default
*END INSTANCE
**
*END ASSEMBLY
**
**
**
*MATERIAL, NAME = Default-Steel
*ELASTIC, TYPE=ISOTROPIC
2.068000e+05, 2.900000e-01
*DENSITY
7.000000e-06
*CONDUCTIVITY,TYPE=ISO
4.500000e-02
*SPECIFIC HEAT
5.000000e+02
**
**
************************************** H I S T O R Y *************************************
**
*PREPRINT
**
**************************************** S T E P 1 ***************************************
*STEP,INC=100,NAME=Default Set
**
*STATIC
1, 1, 1e-05, 1
**
**
**
**
*END STEP
