*HEADING
cubit(curvedfilm_sin3.inp): 08/02/2016: 20:15:08
version: 13.2
**
********************************** P A R T S **********************************
*PART, NAME=Part-Default
**
********************************** N O D E S **********************************
*NODE, NSET=ALLNODES
       1,   -1.000000e+01,    8.002310e-01
       2,   -9.803290e+00,    8.316990e-01
       3,   -9.803170e+00,    1.030920e+00
       4,   -1.000000e+01,    1.000000e+00
       5,   -1.000000e+01,    6.000770e-01
       6,   -9.803340e+00,    6.320630e-01
       7,   -1.000000e+01,    3.999230e-01
       8,   -9.803330e+00,    4.319650e-01
       9,   -1.000000e+01,    1.997690e-01
      10,   -9.803270e+00,    2.315850e-01
      11,   -1.000000e+01,    2.240000e-11
      12,   -9.803180e+00,    3.091500e-02
      13,   -9.606570e+00,    8.632110e-01
      14,   -9.606340e+00,    1.061800e+00
      15,   -9.606660e+00,    6.637090e-01
      16,   -9.606670e+00,    4.638570e-01
      17,   -9.606540e+00,    2.631430e-01
      18,   -9.606360e+00,    6.179900e-02
      19,   -9.409880e+00,    8.947480e-01
      20,   -9.409500e+00,    1.092630e+00
** ... 617 like lines cut
**
********************************** E L E M E N T S ****************************
*ELEMENT, TYPE=S4R, ELSET=property_group_1
       1,       1,       2,       3,       4
       2,       5,       6,       2,       1
       3,       7,       8,       6,       5
       4,       9,      10,       8,       7
       5,      11,      12,      10,       9
       6,       3,       2,      13,      14
       7,       2,       6,      15,      13
       8,       8,      16,      15,       6
       9,      17,      16,       8,      10
      10,      18,      17,      10,      12
      11,      14,      13,      19,      20
      12,      13,      15,      21,      19
      13,      16,      22,      21,      15
      14,      23,      22,      16,      17
      15,      24,      23,      17,      18
      16,      20,      19,      25,      26
      17,      19,      21,      27,      25
      18,      22,      28,      27,      21
      19,      29,      28,      22,      23
      20,      30,      29,      23,      24
** ... 510 like lines cut
**
********************************** N O D E S E T S **********************************
*NSET, NSET=NS1
     637,     636,     633,     628,     621,     607,
     601,     595,     589,     583,     577,     571,
     565,     559,     553,     547,     541,     535,
     529,     523,     517,     511,     505,     499,
     493,     485,     477,     468,     465,     459,
     453,     447,     441,     435,     429,     423,
     417,     412,     406,     400,     394,     388,
     382,     376,     370,     364,     358,     352,
     346,     340,     334,     328,     322,     316,
     310,     304,     298,     292,     286,     280,
     274,     268,     262,     256,     250,     244,
     236,     229,     222,     215,     208,     201,
     194,     187,     180,     173,     166,     159,
     154,     147,     140,     133,     126,     119,
     112,     105,      96,      89,      82,      74,
      68,      62,      56,      50,      44,      38,
      32,      26,      20,      14,       3,       4,
*NSET, NSET=NS2
       4,       1,       5,       7,       9,      11,
*NSET, NSET=NS3
      11,      12,      18,      24,      30,      36,
      42,      48,      54,      60,      66,      71,
      75,      79,      85,      91,      99,     102,
     109,     116,     123,     130,     137,     144,
     151,     160,     167,     174,     181,     188,
     195,     202,     209,     216,     223,     230,
     237,     245,     251,     257,     263,     269,
     275,     281,     287,     293,     299,     305,
     311,     317,     323,     329,     335,     341,
     347,     353,     359,     365,     371,     377,
     383,     389,     395,     401,     407,     413,
     419,     425,     431,     437,     443,     449,
     455,     461,     469,     471,     479,     486,
     494,     500,     506,     512,     518,     524,
     530,     536,     542,     548,     554,     560,
     566,     572,     578,     584,     590,     596,
     602,     608,     610,     612,     614,     616,
*NSET, NSET=NS4
     616,     617,     625,     631,     635,     637,
**
********************************** P R O P E R T I E S ************************
*SHELL SECTION, ELSET=property_group_1, SECTION INTEGRATION=SIMPSON, MATERIAL=Default-Steel
0.000000e+00
**
*END PART
**
**
**
********************************** E N D   P A R T S **********************************
**
**
********************************** A S S E M B L Y ************************************
**
*ASSEMBLY, NAME=ASSEMBLY1
**
*INSTANCE, NAME=Part-Default_1, PART=Part-Default
*END INSTANCE
**
*END ASSEMBLY
**
**
**
*MATERIAL, NAME = Default-Steel
*ELASTIC, TYPE=ISOTROPIC
2.068000e+05, 2.900000e-01
*DENSITY
7.000000e-06
*CONDUCTIVITY,TYPE=ISO
4.500000e-02
*SPECIFIC HEAT
5.000000e+02
**
**
************************************** H I S T O R Y *************************************
**
*PREPRINT
**
**************************************** S T E P 1 ***************************************
*STEP,INC=100,NAME=Default Set
**
*STATIC
1, 1, 1e-05, 1
**
**
**
**
*END STEP
