*HEADING
cubit(curve_01Cos2_l20.inp): 07/25/2016: 00:58:31
version: 13.2
**
********************************** P A R T S **********************************
*PART, NAME=Part-Default
**
********************************** N O D E S **********************************
*NODE, NSET=ALLNODES
       1,   -2.000000e+01,    1.000000e-22
       2,   -1.965180e+01,    6.444000e-05
       3,   -1.963520e+01,    3.336270e-01
       4,   -2.000000e+01,    3.333330e-01
       5,   -1.963520e+01,    6.669720e-01
       6,   -2.000000e+01,    6.666670e-01
       7,   -1.965180e+01,    1.000060e+00
       8,   -2.000000e+01,    1.000000e+00
       9,   -1.927210e+01,    3.130000e-04
      10,   -1.925880e+01,    3.339890e-01
      11,   -1.925880e+01,    6.672760e-01
      12,   -1.927210e+01,    1.000310e+00
      13,   -1.887520e+01,    7.690000e-04
      14,   -1.887040e+01,    3.344850e-01
      15,   -1.887040e+01,    6.677570e-01
      16,   -1.887510e+01,    1.000770e+00
      17,   -1.847780e+01,    1.419000e-03
      18,   -1.847600e+01,    3.351480e-01
      19,   -1.847600e+01,    6.684170e-01
      20,   -1.847780e+01,    1.001420e+00
** ... 388 like lines cut
**
********************************** E L E M E N T S ****************************
*ELEMENT, TYPE=S4R, ELSET=property_group_1
       1,       1,       2,       3,       4
       2,       4,       3,       5,       6
       3,       6,       5,       7,       8
       4,       9,      10,       3,       2
       5,       3,      10,      11,       5
       6,       7,       5,      11,      12
       7,      13,      14,      10,       9
       8,      10,      14,      15,      11
       9,      12,      11,      15,      16
      10,      17,      18,      14,      13
      11,      14,      18,      19,      15
      12,      16,      15,      19,      20
      13,      21,      22,      18,      17
      14,      18,      22,      23,      19
      15,      20,      19,      23,      24
      16,      25,      26,      22,      21
      17,      22,      26,      27,      23
      18,      24,      23,      27,      28
      19,      29,      30,      26,      25
      20,      26,      30,      31,      27
** ... 283 like lines cut
**
********************************** N O D E S E T S **********************************
*NSET, NSET=NS1
       1,       2,       9,      13,      17,      21,
      25,      29,      33,      37,      41,      45,
      49,      53,      57,      61,      65,      69,
      73,      77,      81,      85,      89,      93,
      97,     101,     105,     109,     113,     117,
     121,     125,     129,     133,     137,     141,
     145,     149,     153,     157,     161,     165,
     169,     173,     177,     181,     185,     189,
     193,     197,     201,     205,     209,     213,
     217,     221,     225,     229,     233,     237,
     241,     245,     249,     253,     257,     261,
     265,     269,     273,     277,     281,     285,
     289,     293,     297,     301,     305,     309,
     313,     317,     321,     325,     329,     333,
     337,     341,     345,     349,     353,     357,
     361,     365,     369,     373,     377,     381,
     385,     389,     393,     397,     401,     403,
*NSET, NSET=NS2
       8,       6,       4,       1,
*NSET, NSET=NS3
     408,     406,     400,     396,     392,     388,
     384,     380,     376,     372,     368,     364,
     360,     356,     352,     348,     344,     340,
     336,     332,     328,     324,     320,     316,
     312,     308,     304,     300,     296,     292,
     288,     284,     280,     276,     272,     268,
     264,     260,     256,     252,     248,     244,
     240,     236,     232,     228,     224,     220,
     216,     212,     208,     204,     200,     196,
     192,     188,     184,     180,     176,     172,
     168,     164,     160,     156,     152,     148,
     144,     140,     136,     132,     128,     124,
     120,     116,     112,     108,     104,     100,
      96,      92,      88,      84,      80,      76,
      72,      68,      64,      60,      56,      52,
      48,      44,      40,      36,      32,      28,
      24,      20,      16,      12,       7,       8,
*NSET, NSET=NS4
     403,     404,     407,     408,
**
********************************** P R O P E R T I E S ************************
*SHELL SECTION, ELSET=property_group_1, SECTION INTEGRATION=SIMPSON, MATERIAL=Default-Steel
0.000000e+00
**
*END PART
**
**
**
********************************** E N D   P A R T S **********************************
**
**
********************************** A S S E M B L Y ************************************
**
*ASSEMBLY, NAME=ASSEMBLY1
**
*INSTANCE, NAME=Part-Default_1, PART=Part-Default
*END INSTANCE
**
*END ASSEMBLY
**
**
**
*MATERIAL, NAME = Default-Steel
*ELASTIC, TYPE=ISOTROPIC
2.068000e+05, 2.900000e-01
*DENSITY
7.000000e-06
*CONDUCTIVITY,TYPE=ISO
4.500000e-02
*SPECIFIC HEAT
5.000000e+02
**
**
************************************** H I S T O R Y *************************************
**
*PREPRINT
**
**************************************** S T E P 1 ***************************************
*STEP,INC=100,NAME=Default Set
**
*STATIC
1, 1, 1e-05, 1
**
**
**
**
*END STEP
