*HEADING
cubit(airhole_2D_mesh0.5.inp): 10/06/2015: 00:31:59
version: 13.2
**
********************************** P A R T S **********************************
*PART, NAME=Part-Default
**
********************************** N O D E S **********************************
*NODE, NSET=ALLNODES
       1,    2.000000e+00,    0.000000e+00,    0.000000e+00
       2,    2.500000e+00,    0.000000e+00,    0.000000e+00
       3,    2.414057e+00,    5.862116e-01,    0.000000e+00
       4,    1.931852e+00,    5.176381e-01,    0.000000e+00
       5,    3.000000e+00,    0.000000e+00,    0.000000e+00
       6,    2.949113e+00,    5.677928e-01,    0.000000e+00
       7,    3.500000e+00,    0.000000e+00,    0.000000e+00
       8,    3.467652e+00,    5.426820e-01,    0.000000e+00
       9,    4.000000e+00,    0.000000e+00,    0.000000e+00
      10,    3.984938e+00,    5.225150e-01,    0.000000e+00
      11,    4.500000e+00,    0.000000e+00,    0.000000e+00
      12,    4.494014e+00,    5.108444e-01,    0.000000e+00
      13,    5.000000e+00,    0.000000e+00,    0.000000e+00
      14,    4.998780e+00,    5.051079e-01,    0.000000e+00
      15,    5.500000e+00,    0.000000e+00,    0.000000e+00
      16,    5.501071e+00,    5.023951e-01,    0.000000e+00
      17,    6.000000e+00,    0.000000e+00,    0.000000e+00
      18,    6.001920e+00,    5.011053e-01,    0.000000e+00
      19,    6.500000e+00,    0.000000e+00,    0.000000e+00
      20,    6.501597e+00,    5.006180e-01,    0.000000e+00
** ... 406 like lines cut
**
********************************** E L E M E N T S ****************************
*ELEMENT, TYPE=S4R, ELSET=EB4
       1,       1,       2,       3,       4
       2,       2,       5,       6,       3
       3,       5,       7,       8,       6
       4,       7,       9,      10,       8
       5,       9,      11,      12,      10
       6,      11,      13,      14,      12
       7,      13,      15,      16,      14
       8,      15,      17,      18,      16
       9,      17,      19,      20,      18
      10,      19,      21,      22,      20
      11,      21,      23,      24,      22
      12,      23,      25,      26,      24
      13,      25,      27,      28,      26
      14,      27,      29,      30,      28
      15,      29,      31,      32,      30
      16,      31,      33,      34,      32
      17,      35,      36,      37,      38
      18,      36,      39,      40,      37
      19,      39,      41,      42,      40
      20,      41,      43,      44,      42
** ... 366 like lines cut
**
********************************** N O D E S E T S **********************************
*NSET, NSET=NS1
      75,      76,     111,     113,     115,     117,
     119,     121,     123,     125,     127,     129,
     131,     133,     135,     137,     139,
*NSET, NSET=NS2
      35,      36,      39,      41,      43,      45,
      47,      49,      51,      53,      55,      57,
      59,      61,      63,      65,      67,      69,
      71,      73,      75,
*NSET, NSET=NS3
      33,      34,      77,      79,      81,      83,
      85,      87,      89,      91,      93,      95,
      97,      99,     101,     103,     105,     107,
     109,      38,      35,
*NSET, NSET=NS4
      33,      31,      29,      27,      25,      23,
      21,      19,      17,      15,      13,      11,
       9,       7,       5,       2,       1,
*NSET, NSET=NS5
     139,     140,     141,     143,     145,       4,
       1,
**
********************************** P R O P E R T I E S ************************
*SHELL SECTION, ELSET=EB4, SECTION INTEGRATION=SIMPSON, MATERIAL=Default-Steel
1.000000e+00
**
*END PART
**
**
**
********************************** E N D   P A R T S **********************************
**
**
********************************** A S S E M B L Y ************************************
**
*ASSEMBLY, NAME=ASSEMBLY1
**
*INSTANCE, NAME=Part-Default_1, PART=Part-Default
*END INSTANCE
**
*END ASSEMBLY
**
**
**
*MATERIAL, NAME = Default-Steel
*ELASTIC, TYPE=ISOTROPIC
2.068000e+05, 2.900000e-01
*DENSITY
7.000000e-06
*CONDUCTIVITY,TYPE=ISO
4.500000e-02
*SPECIFIC HEAT
5.000000e+02
**
**
************************************** H I S T O R Y *************************************
**
*PREPRINT
**
**************************************** S T E P 1 ***************************************
*STEP,INC=100,NAME=Default Set
**
*STATIC
1, 1, 1e-05, 1
**
**
**
**
*END STEP
