*HEADING
cubit(ah025.inp): 09/29/2015: 17:19:17
version: 13.2
**
********************************** P A R T S **********************************
*PART, NAME=Part-Default
**
********************************** N O D E S **********************************
*NODE, NSET=ALLNODES
       1,    0.000000e+00,    2.000000e+00
       2,    2.410734e-01,    1.985418e+00
       3,    2.576767e-01,    2.217970e+00
       4,    0.000000e+00,    2.250000e+00
       5,    4.786313e-01,    1.941884e+00
       6,    5.119331e-01,    2.170678e+00
       7,    7.092098e-01,    1.870032e+00
       8,    7.592256e-01,    2.097147e+00
       9,    9.294463e-01,    1.770912e+00
      10,    9.954070e-01,    1.993020e+00
      11,    1.136129e+00,    1.645968e+00
      12,    1.219898e+00,    1.869452e+00
      13,    1.326245e+00,    1.497021e+00
      14,    1.449322e+00,    1.728067e+00
      15,    1.497021e+00,    1.326245e+00
      16,    1.728186e+00,    1.550190e+00
      17,    1.645968e+00,    1.136129e+00
      18,    1.877943e+00,    1.242317e+00
      19,    1.770912e+00,    9.294463e-01
      20,    1.995940e+00,    9.950205e-01
** ... 1650 like lines cut
**
********************************** E L E M E N T S ****************************
*ELEMENT, TYPE=S4R, ELSET=EB4
       1,       1,       2,       3,       4
       2,       2,       5,       6,       3
       3,       5,       7,       8,       6
       4,       7,       9,      10,       8
       5,       9,      11,      12,      10
       6,      11,      13,      14,      12
       7,      13,      15,      16,      14
       8,      15,      17,      18,      16
       9,      17,      19,      20,      18
      10,      19,      21,      22,      20
      11,      21,      23,      24,      22
      12,      23,      25,      26,      24
      13,      25,      27,      28,      26
      14,      29,      30,      31,      32
      15,      30,      33,      34,      31
      16,      33,      35,      36,      34
      17,      35,      37,      38,      36
      18,      37,      39,      40,      38
      19,      39,      41,      42,      40
      20,      41,      43,      44,      42
** ... 1570 like lines cut
**
********************************** N O D E S E T S **********************************
*NSET, NSET=NS1
     113,     114,     117,     119,     121,     123,
     125,     127,     129,     131,     133,     135,
     137,     139,     141,     143,     145,     147,
     149,     151,     153,     155,     157,     159,
     161,     163,     165,     167,     169,     171,
     173,       4,       1,
*NSET, NSET=NS2
     111,     112,     233,     235,     237,     239,
     241,     243,     245,     247,     249,     251,
     253,     255,     257,     259,     261,     263,
     265,     267,     269,     271,     273,     275,
     277,     279,     281,     283,     285,     287,
     289,     291,     293,     295,     297,     299,
     301,     303,     305,     116,     113,
*NSET, NSET=NS3
      29,      30,      33,      35,      37,      39,
      41,      43,      45,      47,      49,      51,
      53,      55,      57,      59,      61,      63,
      65,      67,      69,      71,      73,      75,
      77,      79,      81,      83,      85,      87,
      89,      91,      93,      95,      97,      99,
     101,     103,     105,     107,     109,     111,
*NSET, NSET=NS4
      29,      32,     231,     229,     227,     225,
     223,     221,     219,     217,     215,     213,
     211,     209,     207,     205,     203,     201,
     199,     197,     195,     193,     191,     189,
     187,     185,     183,     181,     179,     177,
     175,      28,      27,
*NSET, NSET=NS5
       1,       2,       5,       7,       9,      11,
      13,      15,      17,      19,      21,      23,
      25,      27,
**
********************************** P R O P E R T I E S ************************
*SHELL SECTION, ELSET=EB4, SECTION INTEGRATION=SIMPSON, MATERIAL=Default-Steel
1.000000e+00
**
*END PART
**
**
**
********************************** E N D   P A R T S **********************************
**
**
********************************** A S S E M B L Y ************************************
**
*ASSEMBLY, NAME=ASSEMBLY1
**
*INSTANCE, NAME=Part-Default_1, PART=Part-Default
*END INSTANCE
**
*END ASSEMBLY
**
**
**
*MATERIAL, NAME = Default-Steel
*ELASTIC, TYPE=ISOTROPIC
2.068000e+05, 2.900000e-01
*DENSITY
7.000000e-06
*CONDUCTIVITY,TYPE=ISO
4.500000e-02
*SPECIFIC HEAT
5.000000e+02
**
**
************************************** H I S T O R Y *************************************
**
*PREPRINT
**
**************************************** S T E P 1 ***************************************
*STEP,INC=100,NAME=Default Set
**
*STATIC
1, 1, 1e-05, 1
**
**
**
**
*END STEP
