*HEADING
cubit(airhole_2D_mesh1.inp): 02/28/2014: 11:13:12
version: 13.2
**
********************************** P A R T S **********************************
*PART, NAME=Part-Default
**
********************************** N O D E S **********************************
*NODE, NSET=ALLNODES
       1,    1.000000e+01,    0.000000e+00,    0.000000e+00
       2,    1.000000e+01,    9.090909e-01,    0.000000e+00
       3,    9.036119e+00,    9.200813e-01,    0.000000e+00
       4,    9.000000e+00,    0.000000e+00,    0.000000e+00
       5,    1.000000e+01,    1.818182e+00,    0.000000e+00
       6,    9.065570e+00,    1.833362e+00,    0.000000e+00
       7,    1.000000e+01,    2.727273e+00,    0.000000e+00
       8,    9.094568e+00,    2.738770e+00,    0.000000e+00
       9,    1.000000e+01,    3.636364e+00,    0.000000e+00
      10,    9.115731e+00,    3.639567e+00,    0.000000e+00
      11,    1.000000e+01,    4.545455e+00,    0.000000e+00
      12,    9.116295e+00,    4.538259e+00,    0.000000e+00
      13,    1.000000e+01,    5.454545e+00,    0.000000e+00
      14,    9.101545e+00,    5.434313e+00,    0.000000e+00
      15,    1.000000e+01,    6.363636e+00,    0.000000e+00
      16,    9.077014e+00,    6.332424e+00,    0.000000e+00
      17,    1.000000e+01,    7.272727e+00,    0.000000e+00
      18,    9.056111e+00,    7.235297e+00,    0.000000e+00
      19,    1.000000e+01,    8.181818e+00,    0.000000e+00
      20,    9.039043e+00,    8.147949e+00,    0.000000e+00
** ... 100 like lines cut
**
********************************** E L E M E N T S ****************************
*ELEMENT, TYPE=S4R, ELSET=EB4
       1,       1,       2,       3,       4
       2,       2,       5,       6,       3
       3,       5,       7,       8,       6
       4,       7,       9,      10,       8
       5,       9,      11,      12,      10
       6,      11,      13,      14,      12
       7,      13,      15,      16,      14
       8,      15,      17,      18,      16
       9,      17,      19,      20,      18
      10,      19,      21,      22,      20
      11,      21,      23,      24,      22
      12,      25,      26,      27,      28
      13,      26,      29,      30,      27
      14,      29,      31,      32,      30
      15,      31,      33,      34,      32
      16,      33,      35,      36,      34
      17,      35,      37,      38,      36
      18,      37,      39,      40,      38
      19,      39,      41,      42,      40
      20,      43,      44,      45,      46
** ... 79 like lines cut
**
********************************** N O D E S E T S **********************************
*NSET, NSET=NS1
      25,      26,      29,      31,      33,      35,
      37,      39,      41,
*NSET, NSET=NS2
      23,      24,      57,      59,      61,      63,
      65,      67,      69,      28,      25,
*NSET, NSET=NS3
       1,       2,       5,       7,       9,      11,
      13,      15,      17,      19,      21,      23,
*NSET, NSET=NS4
       1,       4,      55,      53,      51,      49,
      47,      44,      43,
*NSET, NSET=NS5
      41,      42,      46,      43,
**
********************************** P R O P E R T I E S ************************
*SHELL SECTION, ELSET=EB4, SECTION INTEGRATION=SIMPSON, MATERIAL=Default-Steel
1.000000e+00
**
*END PART
**
**
**
********************************** E N D   P A R T S **********************************
**
**
********************************** A S S E M B L Y ************************************
**
*ASSEMBLY, NAME=ASSEMBLY1
**
*INSTANCE, NAME=Part-Default_1, PART=Part-Default
*END INSTANCE
**
*END ASSEMBLY
**
**
**
*MATERIAL, NAME = Default-Steel
*ELASTIC, TYPE=ISOTROPIC
2.068000e+05, 2.900000e-01
*DENSITY
7.000000e-06
*CONDUCTIVITY,TYPE=ISO
4.500000e-02
*SPECIFIC HEAT
5.000000e+02
**
**
************************************** H I S T O R Y *************************************
**
*PREPRINT
**
**************************************** S T E P 1 ***************************************
*STEP,INC=100,NAME=Default Set
**
*STATIC
1, 1, 1e-05, 1
**
**
**
**
*END STEP
