*HEADING
cubit(curvedfilm.inp): 03/07/2016: 13:46:22
version: 13.2
**
********************************** P A R T S **********************************
*PART, NAME=Part-Default
**
********************************** N O D E S **********************************
*NODE, NSET=ALLNODES
       1,   -1.000000e+01,    0.000000e+00
       2,   -9.804380e+00,    3.874000e-02
       3,   -9.804200e+00,    2.385420e-01
       4,   -1.000000e+01,    1.997950e-01
       5,   -9.804130e+00,    4.384960e-01
       6,   -1.000000e+01,    3.999320e-01
       7,   -9.804140e+00,    6.385860e-01
       8,   -1.000000e+01,    6.000680e-01
       9,   -9.804220e+00,    8.386200e-01
      10,   -1.000000e+01,    8.002050e-01
      11,   -9.804380e+00,    1.038740e+00
      12,   -1.000000e+01,    1.000000e+00
      13,   -9.608650e+00,    7.673800e-02
      14,   -9.608370e+00,    2.765630e-01
      15,   -9.608270e+00,    4.764880e-01
      16,   -9.608300e+00,    6.763630e-01
      17,   -9.608400e+00,    8.765910e-01
      18,   -9.608650e+00,    1.076740e+00
      19,   -9.412800e+00,    1.139920e-01
      20,   -9.412510e+00,    3.138510e-01
** ... 599 like lines cut
**
********************************** E L E M E N T S ****************************
*ELEMENT, TYPE=S4R, ELSET=property_group_1
       1,       1,       2,       3,       4
       2,       4,       3,       5,       6
       3,       6,       5,       7,       8
       4,       8,       7,       9,      10
       5,      10,       9,      11,      12
       6,      13,      14,       3,       2
       7,      14,      15,       5,       3
       8,       5,      15,      16,       7
       9,       9,       7,      16,      17
      10,      11,       9,      17,      18
      11,      19,      20,      14,      13
      12,      20,      21,      15,      14
      13,      15,      21,      22,      16
      14,      17,      16,      22,      23
      15,      18,      17,      23,      24
      16,      25,      26,      20,      19
      17,      26,      27,      21,      20
      18,      21,      27,      28,      22
      19,      23,      22,      28,      29
      20,      24,      23,      29,      30
** ... 492 like lines cut
**
********************************** N O D E S E T S **********************************
*NSET, NSET=NS1
       1,       2,      13,      19,      25,      31,
      37,      43,      49,      55,      61,      67,
      73,      79,      85,      91,      97,     103,
     109,     115,     121,     127,     133,     139,
     142,     151,     159,     165,     171,     177,
     183,     189,     195,     201,     207,     213,
     219,     225,     231,     237,     243,     249,
     255,     261,     267,     273,     279,     285,
     291,     297,     303,     309,     315,     321,
     327,     333,     339,     345,     351,     357,
     363,     369,     375,     381,     387,     393,
     399,     405,     411,     417,     423,     429,
     435,     441,     449,     451,     459,     467,
     474,     480,     486,     492,     498,     504,
     506,     515,     522,     530,     536,     542,
     548,     554,     560,     566,     572,     578,
     584,     590,     592,     594,     596,     598,
*NSET, NSET=NS2
      12,      10,       8,       6,       4,       1,
*NSET, NSET=NS3
     619,     618,     615,     610,     603,     589,
     583,     577,     571,     565,     559,     553,
     547,     541,     535,     529,     521,     513,
     509,     501,     495,     489,     483,     479,
     473,     465,     457,     448,     445,     439,
     433,     427,     421,     415,     409,     403,
     398,     392,     386,     380,     374,     368,
     362,     356,     350,     344,     338,     332,
     326,     320,     314,     308,     302,     296,
     290,     284,     278,     272,     266,     260,
     254,     248,     242,     236,     230,     224,
     218,     212,     206,     200,     194,     188,
     182,     176,     170,     164,     158,     150,
     145,     137,     131,     125,     119,     113,
     107,     101,      95,      89,      83,      78,
      72,      66,      60,      54,      48,      42,
      36,      30,      24,      18,      11,      12,
*NSET, NSET=NS4
     598,     599,     607,     613,     617,     619,
**
********************************** P R O P E R T I E S ************************
*SHELL SECTION, ELSET=property_group_1, SECTION INTEGRATION=SIMPSON, MATERIAL=Default-Steel
0.000000e+00
**
*END PART
**
**
**
********************************** E N D   P A R T S **********************************
**
**
********************************** A S S E M B L Y ************************************
**
*ASSEMBLY, NAME=ASSEMBLY1
**
*INSTANCE, NAME=Part-Default_1, PART=Part-Default
*END INSTANCE
**
*END ASSEMBLY
**
**
**
*MATERIAL, NAME = Default-Steel
*ELASTIC, TYPE=ISOTROPIC
2.068000e+05, 2.900000e-01
*DENSITY
7.000000e-06
*CONDUCTIVITY,TYPE=ISO
4.500000e-02
*SPECIFIC HEAT
5.000000e+02
**
**
************************************** H I S T O R Y *************************************
**
*PREPRINT
**
**************************************** S T E P 1 ***************************************
*STEP,INC=100,NAME=Default Set
**
*STATIC
1, 1, 1e-05, 1
**
**
**
**
*END STEP
