*HEADING
cubit(defect8.inp): 01/30/2016: 02:00:59
version: 13.2
**
********************************** P A R T S **********************************
*PART, NAME=Part-Default
**
********************************** N O D E S **********************************
*NODE, NSET=ALLNODES
       1,   -7.095000e-02,    0.000000e+00,    0.000000e+00
       2,   -7.673000e-02,   -4.685000e-02,    0.000000e+00
       3,   -3.641000e-02,   -4.226000e-02,    0.000000e+00
       4,   -3.138000e-02,    0.000000e+00,    0.000000e+00
       5,   -2.340000e-03,   -3.921000e-02,    0.000000e+00
       6,    0.000000e+00,    0.000000e+00,    0.000000e+00
       7,   -9.500000e+00,   -1.981790e+00,    0.000000e+00
       8,   -7.531790e+00,   -1.872930e+00,    0.000000e+00
       9,   -7.672790e+00,    0.000000e+00,    0.000000e+00
      10,   -9.500000e+00,    0.000000e+00,    0.000000e+00
      11,   -5.831130e+00,   -1.618460e+00,    0.000000e+00
      12,   -6.061160e+00,    0.000000e+00,    0.000000e+00
      13,   -4.113670e+00,   -1.487010e+00,    0.000000e+00
      14,   -4.782790e+00,    0.000000e+00,    0.000000e+00
      15,   -3.289550e+00,   -8.545400e-01,    0.000000e+00
      16,   -3.768800e+00,    0.000000e+00,    0.000000e+00
      17,   -2.708740e+00,   -5.974900e-01,    0.000000e+00
      18,   -2.964500e+00,    0.000000e+00,    0.000000e+00
      19,   -2.155500e+00,   -4.322600e-01,    0.000000e+00
      20,   -2.326540e+00,    0.000000e+00,    0.000000e+00
** ... 476 like lines cut
**
********************************** E L E M E N T S ****************************
*ELEMENT, TYPE=S4R, ELSET=property_group_1
       1,       1,       2,       3,       4
       2,       4,       3,       5,       6
       3,       7,       8,       9,      10
       4,       9,       8,      11,      12
       5,      12,      11,      13,      14
       6,      14,      13,      15,      16
       7,      16,      15,      17,      18
       8,      18,      17,      19,      20
       9,      20,      19,      21,      22
      10,      22,      21,      23,      24
      11,      25,      26,       2,       1
      12,      24,      23,      27,      28
      13,      28,      27,      29,      30
      14,      30,      29,      31,      32
      15,      32,      31,      33,      34
      16,      34,      33,      35,      36
      17,      36,      35,      37,      38
      18,      38,      37,      39,      40
      19,      40,      39,      26,      25
      20,      26,      41,      42,       2
** ... 431 like lines cut
**
********************************** N O D E S E T S **********************************
*NSET, NSET=NS1
      94,      91,     137,     183,     239,     289,
     324,     351,     376,     400,     420,     440,
     457,     470,     481,     490,     495,     496,
     494,     488,     478,     466,     451,     434,
     429,     413,     391,     367,     354,     332,
     330,     296,     282,     279,     283,     278,
     260,     220,     218,     215,     214,     212,
     210,     180,     135,      86,      82,      80,
      46,       6,       4,       1,      25,      40,
      38,      36,      34,      32,      30,      28,
      24,      22,      20,      18,      16,      14,
      12,       9,      10,
*NSET, NSET=NS2
      10,       7,      54,      51,      48,      52,
*NSET, NSET=NS3
      52,      53,     104,     147,     194,     196,
     189,     142,     100,      90,      87,
*NSET, NSET=NS4
      87,      88,      95,      98,      93,      94,
**
********************************** P R O P E R T I E S ************************
*SHELL SECTION, ELSET=property_group_1, SECTION INTEGRATION=SIMPSON, MATERIAL=Default-Steel
0.000000e+00
**
*END PART
**
**
**
********************************** E N D   P A R T S **********************************
**
**
********************************** A S S E M B L Y ************************************
**
*ASSEMBLY, NAME=ASSEMBLY1
**
*INSTANCE, NAME=Part-Default_1, PART=Part-Default
*END INSTANCE
**
*END ASSEMBLY
**
**
**
*MATERIAL, NAME = Default-Steel
*ELASTIC, TYPE=ISOTROPIC
2.068000e+05, 2.900000e-01
*DENSITY
7.000000e-06
*CONDUCTIVITY,TYPE=ISO
4.500000e-02
*SPECIFIC HEAT
5.000000e+02
**
**
************************************** H I S T O R Y *************************************
**
*PREPRINT
**
**************************************** S T E P 1 ***************************************
*STEP,INC=100,NAME=Default Set
**
*STATIC
1, 1, 1e-05, 1
**
**
**
**
*END STEP
