*HEADING
cubit(defect9.inp): 01/31/2016: 11:40:50
version: 13.2
**
********************************** P A R T S **********************************
*PART, NAME=Part-Default
**
********************************** N O D E S **********************************
*NODE, NSET=ALLNODES
       1,    5.000000e-01,   -1.000000e-02
       2,    5.001240e-01,   -3.784000e-02
       3,    5.260030e-01,   -3.816000e-02
       4,    5.250140e-01,   -9.930000e-03
       5,    5.527840e-01,   -3.897000e-02
       6,    5.513370e-01,   -9.740000e-03
       7,    5.000400e-01,   -6.622000e-02
       8,    5.259030e-01,   -6.683000e-02
       9,    4.749860e-01,   -9.930000e-03
      10,    4.742630e-01,   -3.801000e-02
      11,    4.742730e-01,   -6.661000e-02
      12,    4.486630e-01,   -9.740000e-03
      13,    4.475560e-01,   -3.864000e-02
      14,    8.777820e-01,   -1.400000e-03
      15,    8.755520e-01,   -3.493000e-02
      16,    9.066390e-01,   -3.337000e-02
      17,    9.066230e-01,   -8.300000e-04
      18,    9.367670e-01,   -3.277000e-02
      19,    9.353550e-01,   -4.000000e-04
      20,    9.676860e-01,   -3.350000e-02
** ... 1998 like lines cut
**
********************************** E L E M E N T S ****************************
*ELEMENT, TYPE=S4R, ELSET=property_group_1
       1,       1,       2,       3,       4
       2,       4,       3,       5,       6
       3,       2,       7,       8,       3
       4,       9,      10,       2,       1
       5,      10,      11,       7,       2
       6,      12,      13,      10,       9
       7,      14,      15,      16,      17
       8,      17,      16,      18,      19
       9,      19,      18,      20,      21
      10,      21,      20,      22,      23
      11,       6,       5,      24,      25
      12,      25,      24,      26,      27
      13,      27,      26,      28,      29
      14,      30,      31,      15,      14
      15,      29,      28,      32,      33
      16,      33,      32,      34,      35
      17,      35,      34,      36,      37
      18,      38,      39,      31,      30
      19,      37,      36,      39,      38
      20,      15,      40,      41,      16
** ... 1938 like lines cut
**
********************************** N O D E S E T S **********************************
*NSET, NSET=NS1
    1129,    1126,    1130,    1125,    1123,    1050,
    1048,    1039,     966,     890,     822,     750,
     687,     623,     554,     509,     466,     418,
     374,     327,     276,     227,     176,     126,
      75,      73,      71,      69,      67,      63,
      23,      21,      19,      17,      14,      30,
      38,      37,      35,      33,      29,      27,
      25,       6,       4,       1,       9,      12,
      47,      49,      51,      53,      76,      78,
      80,      82,      84,     128,     179,     231,
     281,     331,     333,     382,     426,     473,
     516,     561,     632,     700,     769,     842,
     919,     992,    1072,    1157,    1159,    1237,
    1239,    1317,    1319,    1350,    1352,    1423,
    1454,    1467,    1465,    1463,    1461,    1458,
    1459,
*NSET, NSET=NS2
    1301,    1300,    1298,    1296,    1217,    1212,
    1128,    1129,
*NSET, NSET=NS3
    1578,    1579,    1632,    1636,    1635,    1631,
    1629,    1574,    1519,    1453,    1451,    1443,
    1378,    1302,    1301,
*NSET, NSET=NS4
    1459,    1456,    1523,    1528,    1582,    1585,
    1581,    1578,
**
********************************** P R O P E R T I E S ************************
*SHELL SECTION, ELSET=property_group_1, SECTION INTEGRATION=SIMPSON, MATERIAL=Default-Steel
0.000000e+00
**
*END PART
**
**
**
********************************** E N D   P A R T S **********************************
**
**
********************************** A S S E M B L Y ************************************
**
*ASSEMBLY, NAME=ASSEMBLY1
**
*INSTANCE, NAME=Part-Default_1, PART=Part-Default
*END INSTANCE
**
*END ASSEMBLY
**
**
**
*MATERIAL, NAME = Default-Steel
*ELASTIC, TYPE=ISOTROPIC
2.068000e+05, 2.900000e-01
*DENSITY
7.000000e-06
*CONDUCTIVITY,TYPE=ISO
4.500000e-02
*SPECIFIC HEAT
5.000000e+02
**
**
************************************** H I S T O R Y *************************************
**
*PREPRINT
**
**************************************** S T E P 1 ***************************************
*STEP,INC=100,NAME=Default Set
**
*STATIC
1, 1, 1e-05, 1
**
**
**
**
*END STEP
