*HEADING
cubit(defect1.inp): 01/26/2016: 15:55:01
version: 13.2
**
********************************** P A R T S **********************************
*PART, NAME=Part-Default
**
********************************** N O D E S **********************************
*NODE, NSET=ALLNODES
       1,   -9.500000e+00,   -9.990000e+00
       2,   -9.172130e+00,   -9.990000e+00
       3,   -9.173910e+00,   -9.658900e+00
       4,   -9.500000e+00,   -9.656570e+00
       5,   -9.176020e+00,   -9.327370e+00
       6,   -9.500000e+00,   -9.323140e+00
       7,   -9.178630e+00,   -8.995050e+00
       8,   -9.500000e+00,   -8.989710e+00
       9,   -9.181700e+00,   -8.661850e+00
      10,   -9.500000e+00,   -8.656280e+00
      11,   -9.185120e+00,   -8.327960e+00
      12,   -9.500000e+00,   -8.322850e+00
      13,   -9.500000e+00,   -3.205200e-01
      14,   -9.173370e+00,   -3.182200e-01
      15,   -9.172410e+00,    1.000000e-02
      16,   -9.500000e+00,    1.000000e-02
      17,   -9.188660e+00,   -7.993700e+00
      18,   -9.500000e+00,   -7.989420e+00
      19,   -9.191890e+00,   -7.659440e+00
      20,   -9.500000e+00,   -7.655990e+00
** ... 4082 like lines cut
**
********************************** E L E M E N T S ****************************
*ELEMENT, TYPE=S4R, ELSET=PART-DEFAULT_1_PROPERTY_GROUP_1
       1,       1,       2,       3,       4
       2,       4,       3,       5,       6
       3,       6,       5,       7,       8
       4,       8,       7,       9,      10
       5,      10,       9,      11,      12
       6,      13,      14,      15,      16
       7,      12,      11,      17,      18
       8,      18,      17,      19,      20
       9,      20,      19,      21,      22
      10,      23,      24,      14,      13
      11,      22,      21,      25,      26
      12,      27,      28,      24,      23
      13,      29,      30,      28,      27
      14,      31,      32,      30,      29
      15,      33,      34,      32,      31
      16,      26,      25,      35,      36
      17,      36,      35,      37,      38
      18,      38,      37,      39,      40
      19,      40,      39,      41,      42
      20,      43,      44,      34,      33
** ... 3898 like lines cut
**
********************************** N O D E S E T S **********************************
*NSET, NSET=PART-DEFAULT_1_ALLNODES
       1,    1142,      16,    2051,       2,      63,
      94,     125,     158,     190,     192,     224,
     257,     290,     323,     356,     391,     424,
     460,     495,     530,     565,     600,     635,
     670,     705,     740,     775,     808,     841,
     874,     876,     909,     943,     979,    1015,
    1017,    1054,    1090,    1092,    1094,    1096,
    1098,    1100,    1102,    1104,    1106,    1108,
    1110,    1112,    1114,    1116,    1118,    1120,
    1122,    1124,    1126,    1128,    1130,    1132,
    1134,    1136,    1138,    1140,      13,      23,
      27,      29,      31,      33,      43,      45,
      47,      55,      59,      61,      58,      54,
      52,      50,      42,      40,      38,      36,
      26,      22,      20,      18,      12,      10,
       8,       6,       4,    2049,    2045,    2039,
    2031,    2021,    2009,    1995,    1979,    1961,
    1941,    1919,    1895,    1869,    1841,    1809,
    1773,    1731,    1684,    1640,    1596,    1550,
    1502,    1452,    1400,    1348,    1294,    1238,
** ... 322 like lines cut
*NSET, NSET=NS2
      16,      13,      23,      27,      29,      31,
      33,      43,      45,      47,      55,      59,
      61,      58,      54,      52,      50,      42,
      40,      38,      36,      26,      22,      20,
      18,      12,      10,       8,       6,       4,
       1,
*NSET, NSET=NS3
    2051,    2049,    2045,    2039,    2031,    2021,
    2009,    1995,    1979,    1961,    1941,    1919,
    1895,    1869,    1841,    1809,    1773,    1731,
    1684,    1640,    1596,    1550,    1502,    1452,
    1400,    1348,    1294,    1238,    1178,    1089,
    1052,    1014,     978,     942,     908,     873,
     840,     807,     774,     739,     704,     669,
     634,     599,     564,     529,     494,     459,
     423,     390,     355,     322,     289,     256,
     223,     189,     157,     135,     103,      71,
      15,      16,
*NSET, NSET=NS4
    1142,    1143,    1204,    1263,    1318,    1371,
    1422,    1473,    1522,    1569,    1614,    1659,
    1702,    1748,    1789,    1824,    1855,    1882,
    1907,    1930,    1951,    1970,    1987,    2002,
    2015,    2026,    2035,    2042,    2047,    2050,
    2051,
**
********************************** P R O P E R T I E S ************************
*SHELL SECTION, ELSET=PART-DEFAULT_1_PROPERTY_GROUP_1, SECTION INTEGRATION=SIMPSON, MATERIAL=DEFAULT-STEEL
0.000000e+00
**
*END PART
**
**
**
********************************** E N D   P A R T S **********************************
**
**
********************************** A S S E M B L Y ************************************
**
*ASSEMBLY, NAME=ASSEMBLY1
**
*INSTANCE, NAME=Part-Default_1, PART=Part-Default
*END INSTANCE
**
*END ASSEMBLY
**
**
**
*MATERIAL, NAME = DEFAULT-STEEL
*ELASTIC, TYPE=ISOTROPIC
2.068000e+05, 2.900000e-01
*DENSITY
7.000000e-06
*CONDUCTIVITY,TYPE=ISO
4.500000e-02
*SPECIFIC HEAT
5.000000e+02
**
*MATERIAL, NAME = DEFAULT-STEEL
*ELASTIC, TYPE=ISOTROPIC
2.068000e+05, 2.900000e-01
*DENSITY
7.000000e-06
*CONDUCTIVITY,TYPE=ISO
4.500000e-02
*SPECIFIC HEAT
5.000000e+02
**
**
************************************** H I S T O R Y *************************************
**
*PREPRINT
**
**************************************** S T E P 1 ***************************************
*STEP,INC=100,NAME=DEFAULT SET
**
*STATIC
1, 1, 1e-05, 1
**
**
**
**
*END STEP
**
**************************************** S T E P 2 ***************************************
*STEP,INC=100,NAME=DEFAULT SET
**
*STATIC
1, 1, 1e-05, 1
**
**
**
**
*END STEP
