*HEADING
cubit(nodefect1.inp): 01/27/2016: 18:05:25
version: 13.2
**
********************************** P A R T S **********************************
*PART, NAME=Part-Default
**
********************************** N O D E S **********************************
*NODE, NSET=ALLNODES
       1,    1.962500e+01,    1.000000e+01,    0.000000e+00
       2,    1.961490e+01,    9.931990e+00,    0.000000e+00
       3,    1.967120e+01,    9.881790e+00,    0.000000e+00
       4,    1.975000e+01,    1.000000e+01,    0.000000e+00
       5,    1.984180e+01,    9.874160e+00,    0.000000e+00
       6,    1.987500e+01,    1.000000e+01,    0.000000e+00
       7,    2.000000e+01,    9.868210e+00,    0.000000e+00
       8,    2.000000e+01,    1.000000e+01,    0.000000e+00
       9,    1.950000e+01,    1.000000e+01,    0.000000e+00
      10,    1.952430e+01,    9.908080e+00,    0.000000e+00
      11,    1.937500e+01,    1.000000e+01,    0.000000e+00
      12,    1.939510e+01,    9.903360e+00,    0.000000e+00
      13,    1.925000e+01,    1.000000e+01,    0.000000e+00
      14,    1.929210e+01,    9.918580e+00,    0.000000e+00
      15,    1.958880e+01,    9.767170e+00,    0.000000e+00
      16,    1.980670e+01,    9.732030e+00,    0.000000e+00
      17,    2.000000e+01,    9.722530e+00,    0.000000e+00
      18,    1.938850e+01,    9.771290e+00,    0.000000e+00
      19,    1.977930e+01,    9.565010e+00,    0.000000e+00
      20,    2.000000e+01,    9.561490e+00,    0.000000e+00
** ... 1608 like lines cut
**
********************************** E L E M E N T S ****************************
*ELEMENT, TYPE=S4R, ELSET=property_group_1
       1,       1,       2,       3,       4
       2,       4,       3,       5,       6
       3,       6,       5,       7,       8
       4,       9,      10,       2,       1
       5,      11,      12,      10,       9
       6,      13,      14,      12,      11
       7,      10,      15,       3,       2
       8,       7,       5,      16,      17
       9,       3,      15,      16,       5
      10,      12,      18,      15,      10
      11,      17,      16,      19,      20
      12,      21,      22,      14,      13
      13,      14,      22,      18,      12
      14,      23,      24,      22,      21
      15,      25,      26,      24,      23
      16,      27,      28,      26,      25
      17,      29,      30,      28,      27
      18,      31,      32,      30,      29
      19,      16,      15,      33,      19
      20,      18,      34,      33,      15
** ... 1495 like lines cut
**
********************************** N O D E S E T S **********************************
*NSET, NSET=NS1
       8,       6,       4,       1,       9,      11,
      13,      21,      23,      25,      27,      29,
      31,      44,      51,      53,      61,      60,
      58,      55,      82,      87,      89,      91,
      93,      95,      97,      99,     101,     130,
     132,     129,     127,     125,     112,     108,
     105,     109,     164,     172,     171,     169,
     166,     199,     201,     260,     264,     268,
     270,     272,     267,     263,     259,     257,
     255,     252,     328,     330,     332,     334,
     414,     341,     339,     337,     316,     313,
     317,     319,     312,     309,     218,     157,
     154,     158,     160,     222,     224,     226,
     153,     151,     148,     205,     207,     278,
     282,     284,     291,     289,     286,     366,
     458,     466,     468,     470,     472,     474,
     476,     561,     558,     563,     457,     455,
     452,     444,     441,     448,     445,     449,
     553,     479,     380,     377,     482,     484,
     582,     663,     739,     809,     883,     963,
** ... 7 like lines cut
*NSET, NSET=NS2
     515,     516,     521,     523,     520,     514,
     499,     390,     301,     299,     214,     146,
     104,      73,      71,      68,      42,      40,
      37,      20,      17,       7,       8,
*NSET, NSET=NS3
    1104,    1105,    1173,    1229,    1237,    1236,
    1233,    1232,    1228,    1214,    1159,    1086,
    1020,     935,     918,     842,     774,     696,
     616,     518,     515,
*NSET, NSET=NS4
    1628,    1627,    1624,    1619,    1612,    1605,
    1598,    1589,    1578,    1562,    1544,    1520,
    1490,    1482,    1440,    1406,    1369,    1337,
    1295,    1241,    1176,    1107,    1104,
**
********************************** P R O P E R T I E S ************************
*SHELL SECTION, ELSET=property_group_1, SECTION INTEGRATION=SIMPSON, MATERIAL=Default-Steel
0.000000e+00
**
*END PART
**
**
**
********************************** E N D   P A R T S **********************************
**
**
********************************** A S S E M B L Y ************************************
**
*ASSEMBLY, NAME=ASSEMBLY1
**
*INSTANCE, NAME=Part-Default_1, PART=Part-Default
*END INSTANCE
**
*END ASSEMBLY
**
**
**
*MATERIAL, NAME = Default-Steel
*ELASTIC, TYPE=ISOTROPIC
2.068000e+05, 2.900000e-01
*DENSITY
7.000000e-06
*CONDUCTIVITY,TYPE=ISO
4.500000e-02
*SPECIFIC HEAT
5.000000e+02
**
**
************************************** H I S T O R Y *************************************
**
*PREPRINT
**
**************************************** S T E P 1 ***************************************
*STEP,INC=100,NAME=Default Set
**
*STATIC
1, 1, 1e-05, 1
**
**
**
**
*END STEP
